
---------- Begin Simulation Statistics ----------
sim_seconds                                  0.093603                       # Number of seconds simulated
sim_ticks                                 93603227000                       # Number of ticks simulated
final_tick                                93603227000                       # Number of ticks from beginning of simulation (restored from checkpoints and never reset)
sim_freq                                 1000000000000                       # Frequency of simulated ticks
host_inst_rate                                1588745                       # Simulator instruction rate (inst/s)
host_op_rate                                  2615900                       # Simulator op (including micro ops) rate (op/s)
host_tick_rate                             3335111953                       # Simulator tick rate (ticks/s)
host_mem_usage                                 660100                       # Number of bytes of host memory used
host_seconds                                    28.07                       # Real time elapsed on the host
sim_insts                                    44589700                       # Number of instructions simulated
sim_ops                                      73417828                       # Number of ops (including micro ops) simulated
system.voltage_domain.voltage                       1                       # Voltage in Volts
system.clk_domain.clock                          1000                       # Clock period in ticks
system.mem_ctrls.pwrStateResidencyTicks::UNDEFINED  93603227000                       # Cumulative time (in ticks) in various power states
system.mem_ctrls.bytes_read::cpu.inst           22592                       # Number of bytes read from this memory
system.mem_ctrls.bytes_read::cpu.data         1243840                       # Number of bytes read from this memory
system.mem_ctrls.bytes_read::total            1266432                       # Number of bytes read from this memory
system.mem_ctrls.bytes_inst_read::cpu.inst        22592                       # Number of instructions bytes read from this memory
system.mem_ctrls.bytes_inst_read::total         22592                       # Number of instructions bytes read from this memory
system.mem_ctrls.bytes_written::writebacks      1036992                       # Number of bytes written to this memory
system.mem_ctrls.bytes_written::total         1036992                       # Number of bytes written to this memory
system.mem_ctrls.num_reads::cpu.inst              353                       # Number of read requests responded to by this memory
system.mem_ctrls.num_reads::cpu.data            19435                       # Number of read requests responded to by this memory
system.mem_ctrls.num_reads::total               19788                       # Number of read requests responded to by this memory
system.mem_ctrls.num_writes::writebacks         16203                       # Number of write requests responded to by this memory
system.mem_ctrls.num_writes::total              16203                       # Number of write requests responded to by this memory
system.mem_ctrls.bw_read::cpu.inst             241359                       # Total read bandwidth from this memory (bytes/s)
system.mem_ctrls.bw_read::cpu.data           13288431                       # Total read bandwidth from this memory (bytes/s)
system.mem_ctrls.bw_read::total              13529790                       # Total read bandwidth from this memory (bytes/s)
system.mem_ctrls.bw_inst_read::cpu.inst        241359                       # Instruction read bandwidth from this memory (bytes/s)
system.mem_ctrls.bw_inst_read::total           241359                       # Instruction read bandwidth from this memory (bytes/s)
system.mem_ctrls.bw_write::writebacks        11078592                       # Write bandwidth from this memory (bytes/s)
system.mem_ctrls.bw_write::total             11078592                       # Write bandwidth from this memory (bytes/s)
system.mem_ctrls.bw_total::writebacks        11078592                       # Total bandwidth to/from this memory (bytes/s)
system.mem_ctrls.bw_total::cpu.inst            241359                       # Total bandwidth to/from this memory (bytes/s)
system.mem_ctrls.bw_total::cpu.data          13288431                       # Total bandwidth to/from this memory (bytes/s)
system.mem_ctrls.bw_total::total             24608382                       # Total bandwidth to/from this memory (bytes/s)
system.pwrStateResidencyTicks::UNDEFINED  93603227000                       # Cumulative time (in ticks) in various power states
system.cpu_voltage_domain.voltage                   1                       # Voltage in Volts
system.cpu_clk_domain.clock                       500                       # Clock period in ticks
system.cpu.dtb.walker.pwrStateResidencyTicks::UNDEFINED  93603227000                       # Cumulative time (in ticks) in various power states
system.cpu.dtb.rdAccesses                    20877736                       # TLB accesses on read requests
system.cpu.dtb.wrAccesses                     5816528                       # TLB accesses on write requests
system.cpu.dtb.rdMisses                           166                       # TLB misses on read requests
system.cpu.dtb.wrMisses                           106                       # TLB misses on write requests
system.cpu.apic_clk_domain.clock                 8000                       # Clock period in ticks
system.cpu.interrupts.pwrStateResidencyTicks::UNDEFINED  93603227000                       # Cumulative time (in ticks) in various power states
system.cpu.itb.walker.pwrStateResidencyTicks::UNDEFINED  93603227000                       # Cumulative time (in ticks) in various power states
system.cpu.itb.rdAccesses                           0                       # TLB accesses on read requests
system.cpu.itb.wrAccesses                    59916889                       # TLB accesses on write requests
system.cpu.itb.rdMisses                             0                       # TLB misses on read requests
system.cpu.itb.wrMisses                            36                       # TLB misses on write requests
system.cpu.workload.numSyscalls                     9                       # Number of system calls
system.cpu.pwrStateResidencyTicks::ON     93603227000                       # Cumulative time (in ticks) in various power states
system.cpu.numCycles                        187206454                       # number of cpu cycles simulated
system.cpu.numWorkItemsStarted                      0                       # number of work items this cpu started
system.cpu.numWorkItemsCompleted                    0                       # number of work items this cpu completed
system.cpu.committedInsts                    44589700                       # Number of instructions committed
system.cpu.committedOps                      73417828                       # Number of ops (including micro ops) committed
system.cpu.num_int_alu_accesses              72895904                       # Number of integer alu accesses
system.cpu.num_fp_alu_accesses                   1943                       # Number of float alu accesses
system.cpu.num_vec_alu_accesses                     0                       # Number of vector alu accesses
system.cpu.num_func_calls                      944900                       # number of times a function call or return occured
system.cpu.num_conditional_control_insts      4232449                       # number of instructions that are conditional controls
system.cpu.num_int_insts                     72895904                       # number of integer instructions
system.cpu.num_fp_insts                          1943                       # number of float instructions
system.cpu.num_vec_insts                            0                       # number of vector instructions
system.cpu.num_int_register_reads           163691533                       # number of times the integer registers were read
system.cpu.num_int_register_writes           63686398                       # number of times the integer registers were written
system.cpu.num_fp_register_reads                 3767                       # number of times the floating registers were read
system.cpu.num_fp_register_writes                1480                       # number of times the floating registers were written
system.cpu.num_vec_register_reads                   0                       # number of times the vector registers were read
system.cpu.num_vec_register_writes                  0                       # number of times the vector registers were written
system.cpu.num_cc_register_reads             27636604                       # number of times the CC registers were read
system.cpu.num_cc_register_writes            24933077                       # number of times the CC registers were written
system.cpu.num_mem_refs                      26694261                       # number of memory refs
system.cpu.num_load_insts                    20877733                       # Number of load instructions
system.cpu.num_store_insts                    5816528                       # Number of store instructions
system.cpu.num_idle_cycles                          0                       # Number of idle cycles
system.cpu.num_busy_cycles                  187206454                       # Number of busy cycles
system.cpu.not_idle_fraction                        1                       # Percentage of non-idle cycles
system.cpu.idle_fraction                            0                       # Percentage of idle cycles
system.cpu.Branches                           5574733                       # Number of branches fetched
system.cpu.op_class::No_OpClass                175846      0.24%      0.24% # Class of executed instruction
system.cpu.op_class::IntAlu                  45543763     62.03%     62.27% # Class of executed instruction
system.cpu.op_class::IntMult                        4      0.00%     62.27% # Class of executed instruction
system.cpu.op_class::IntDiv                   1002994      1.37%     63.64% # Class of executed instruction
system.cpu.op_class::FloatAdd                      10      0.00%     63.64% # Class of executed instruction
system.cpu.op_class::FloatCmp                       0      0.00%     63.64% # Class of executed instruction
system.cpu.op_class::FloatCvt                       0      0.00%     63.64% # Class of executed instruction
system.cpu.op_class::FloatMult                      0      0.00%     63.64% # Class of executed instruction
system.cpu.op_class::FloatMultAcc                   0      0.00%     63.64% # Class of executed instruction
system.cpu.op_class::FloatDiv                       0      0.00%     63.64% # Class of executed instruction
system.cpu.op_class::FloatMisc                      0      0.00%     63.64% # Class of executed instruction
system.cpu.op_class::FloatSqrt                      0      0.00%     63.64% # Class of executed instruction
system.cpu.op_class::SimdAdd                      374      0.00%     63.64% # Class of executed instruction
system.cpu.op_class::SimdAddAcc                     0      0.00%     63.64% # Class of executed instruction
system.cpu.op_class::SimdAlu                       68      0.00%     63.64% # Class of executed instruction
system.cpu.op_class::SimdCmp                        0      0.00%     63.64% # Class of executed instruction
system.cpu.op_class::SimdCvt                      108      0.00%     63.64% # Class of executed instruction
system.cpu.op_class::SimdMisc                     214      0.00%     63.64% # Class of executed instruction
system.cpu.op_class::SimdMult                       0      0.00%     63.64% # Class of executed instruction
system.cpu.op_class::SimdMultAcc                    0      0.00%     63.64% # Class of executed instruction
system.cpu.op_class::SimdShift                    186      0.00%     63.64% # Class of executed instruction
system.cpu.op_class::SimdShiftAcc                   0      0.00%     63.64% # Class of executed instruction
system.cpu.op_class::SimdSqrt                       0      0.00%     63.64% # Class of executed instruction
system.cpu.op_class::SimdFloatAdd                   0      0.00%     63.64% # Class of executed instruction
system.cpu.op_class::SimdFloatAlu                   0      0.00%     63.64% # Class of executed instruction
system.cpu.op_class::SimdFloatCmp                   0      0.00%     63.64% # Class of executed instruction
system.cpu.op_class::SimdFloatCvt                   0      0.00%     63.64% # Class of executed instruction
system.cpu.op_class::SimdFloatDiv                   0      0.00%     63.64% # Class of executed instruction
system.cpu.op_class::SimdFloatMisc                  0      0.00%     63.64% # Class of executed instruction
system.cpu.op_class::SimdFloatMult                  0      0.00%     63.64% # Class of executed instruction
system.cpu.op_class::SimdFloatMultAcc               0      0.00%     63.64% # Class of executed instruction
system.cpu.op_class::SimdFloatSqrt                  0      0.00%     63.64% # Class of executed instruction
system.cpu.op_class::MemRead                 20877677     28.44%     92.08% # Class of executed instruction
system.cpu.op_class::MemWrite                 5816113      7.92%    100.00% # Class of executed instruction
system.cpu.op_class::FloatMemRead                  56      0.00%    100.00% # Class of executed instruction
system.cpu.op_class::FloatMemWrite                415      0.00%    100.00% # Class of executed instruction
system.cpu.op_class::IprAccess                      0      0.00%    100.00% # Class of executed instruction
system.cpu.op_class::InstPrefetch                   0      0.00%    100.00% # Class of executed instruction
system.cpu.op_class::total                   73417828                       # Class of executed instruction
system.cpu.dcache.tags.pwrStateResidencyTicks::UNDEFINED  93603227000                       # Cumulative time (in ticks) in various power states
system.cpu.dcache.tags.tagsinuse           510.076418                       # Cycle average of tags in use
system.cpu.dcache.tags.total_refs            26694264                       # Total number of references to valid blocks.
system.cpu.dcache.tags.sampled_refs             45438                       # Sample count of references to valid blocks.
system.cpu.dcache.tags.avg_refs            587.487654                       # Average number of references to valid blocks.
system.cpu.dcache.tags.warmup_cycle            759000                       # Cycle when the warmup percentage was hit.
system.cpu.dcache.tags.occ_blocks::cpu.data   510.076418                       # Average occupied blocks per requestor
system.cpu.dcache.tags.occ_percent::cpu.data     0.996243                       # Average percentage of cache occupancy
system.cpu.dcache.tags.occ_percent::total     0.996243                       # Average percentage of cache occupancy
system.cpu.dcache.tags.occ_task_id_blocks::1024          512                       # Occupied blocks per task id
system.cpu.dcache.tags.age_task_id_blocks_1024::0           15                       # Occupied blocks per task id
system.cpu.dcache.tags.age_task_id_blocks_1024::1           11                       # Occupied blocks per task id
system.cpu.dcache.tags.age_task_id_blocks_1024::2           34                       # Occupied blocks per task id
system.cpu.dcache.tags.age_task_id_blocks_1024::3          451                       # Occupied blocks per task id
system.cpu.dcache.tags.age_task_id_blocks_1024::4            1                       # Occupied blocks per task id
system.cpu.dcache.tags.occ_task_id_percent::1024            1                       # Percentage of cache occupancy per task id
system.cpu.dcache.tags.tag_accesses          53433966                       # Number of tag accesses
system.cpu.dcache.tags.data_accesses         53433966                       # Number of data accesses
system.cpu.dcache.pwrStateResidencyTicks::UNDEFINED  93603227000                       # Cumulative time (in ticks) in various power states
system.cpu.dcache.ReadReq_hits::cpu.data     20839000                       # number of ReadReq hits
system.cpu.dcache.ReadReq_hits::total        20839000                       # number of ReadReq hits
system.cpu.dcache.WriteReq_hits::cpu.data      5806289                       # number of WriteReq hits
system.cpu.dcache.WriteReq_hits::total        5806289                       # number of WriteReq hits
system.cpu.dcache.demand_hits::cpu.data      26645289                       # number of demand (read+write) hits
system.cpu.dcache.demand_hits::total         26645289                       # number of demand (read+write) hits
system.cpu.dcache.overall_hits::cpu.data     26645289                       # number of overall hits
system.cpu.dcache.overall_hits::total        26645289                       # number of overall hits
system.cpu.dcache.ReadReq_misses::cpu.data        38736                       # number of ReadReq misses
system.cpu.dcache.ReadReq_misses::total         38736                       # number of ReadReq misses
system.cpu.dcache.WriteReq_misses::cpu.data        10239                       # number of WriteReq misses
system.cpu.dcache.WriteReq_misses::total        10239                       # number of WriteReq misses
system.cpu.dcache.demand_misses::cpu.data        48975                       # number of demand (read+write) misses
system.cpu.dcache.demand_misses::total          48975                       # number of demand (read+write) misses
system.cpu.dcache.overall_misses::cpu.data        48975                       # number of overall misses
system.cpu.dcache.overall_misses::total         48975                       # number of overall misses
system.cpu.dcache.ReadReq_miss_latency::cpu.data   5609543500                       # number of ReadReq miss cycles
system.cpu.dcache.ReadReq_miss_latency::total   5609543500                       # number of ReadReq miss cycles
system.cpu.dcache.WriteReq_miss_latency::cpu.data   1368780500                       # number of WriteReq miss cycles
system.cpu.dcache.WriteReq_miss_latency::total   1368780500                       # number of WriteReq miss cycles
system.cpu.dcache.demand_miss_latency::cpu.data   6978324000                       # number of demand (read+write) miss cycles
system.cpu.dcache.demand_miss_latency::total   6978324000                       # number of demand (read+write) miss cycles
system.cpu.dcache.overall_miss_latency::cpu.data   6978324000                       # number of overall miss cycles
system.cpu.dcache.overall_miss_latency::total   6978324000                       # number of overall miss cycles
system.cpu.dcache.ReadReq_accesses::cpu.data     20877736                       # number of ReadReq accesses(hits+misses)
system.cpu.dcache.ReadReq_accesses::total     20877736                       # number of ReadReq accesses(hits+misses)
system.cpu.dcache.WriteReq_accesses::cpu.data      5816528                       # number of WriteReq accesses(hits+misses)
system.cpu.dcache.WriteReq_accesses::total      5816528                       # number of WriteReq accesses(hits+misses)
system.cpu.dcache.demand_accesses::cpu.data     26694264                       # number of demand (read+write) accesses
system.cpu.dcache.demand_accesses::total     26694264                       # number of demand (read+write) accesses
system.cpu.dcache.overall_accesses::cpu.data     26694264                       # number of overall (read+write) accesses
system.cpu.dcache.overall_accesses::total     26694264                       # number of overall (read+write) accesses
system.cpu.dcache.ReadReq_miss_rate::cpu.data     0.001855                       # miss rate for ReadReq accesses
system.cpu.dcache.ReadReq_miss_rate::total     0.001855                       # miss rate for ReadReq accesses
system.cpu.dcache.WriteReq_miss_rate::cpu.data     0.001760                       # miss rate for WriteReq accesses
system.cpu.dcache.WriteReq_miss_rate::total     0.001760                       # miss rate for WriteReq accesses
system.cpu.dcache.demand_miss_rate::cpu.data     0.001835                       # miss rate for demand accesses
system.cpu.dcache.demand_miss_rate::total     0.001835                       # miss rate for demand accesses
system.cpu.dcache.overall_miss_rate::cpu.data     0.001835                       # miss rate for overall accesses
system.cpu.dcache.overall_miss_rate::total     0.001835                       # miss rate for overall accesses
system.cpu.dcache.ReadReq_avg_miss_latency::cpu.data 144814.733065                       # average ReadReq miss latency
system.cpu.dcache.ReadReq_avg_miss_latency::total 144814.733065                       # average ReadReq miss latency
system.cpu.dcache.WriteReq_avg_miss_latency::cpu.data 133683.025686                       # average WriteReq miss latency
system.cpu.dcache.WriteReq_avg_miss_latency::total 133683.025686                       # average WriteReq miss latency
system.cpu.dcache.demand_avg_miss_latency::cpu.data 142487.473201                       # average overall miss latency
system.cpu.dcache.demand_avg_miss_latency::total 142487.473201                       # average overall miss latency
system.cpu.dcache.overall_avg_miss_latency::cpu.data 142487.473201                       # average overall miss latency
system.cpu.dcache.overall_avg_miss_latency::total 142487.473201                       # average overall miss latency
system.cpu.dcache.blocked_cycles::no_mshrs            0                       # number of cycles access was blocked
system.cpu.dcache.blocked_cycles::no_targets            0                       # number of cycles access was blocked
system.cpu.dcache.blocked::no_mshrs                 0                       # number of cycles access was blocked
system.cpu.dcache.blocked::no_targets               0                       # number of cycles access was blocked
system.cpu.dcache.avg_blocked_cycles::no_mshrs          nan                       # average number of cycles each access was blocked
system.cpu.dcache.avg_blocked_cycles::no_targets          nan                       # average number of cycles each access was blocked
system.cpu.dcache.writebacks::writebacks        43434                       # number of writebacks
system.cpu.dcache.writebacks::total             43434                       # number of writebacks
system.cpu.dcache.ReadReq_mshr_misses::cpu.data        38736                       # number of ReadReq MSHR misses
system.cpu.dcache.ReadReq_mshr_misses::total        38736                       # number of ReadReq MSHR misses
system.cpu.dcache.WriteReq_mshr_misses::cpu.data        10239                       # number of WriteReq MSHR misses
system.cpu.dcache.WriteReq_mshr_misses::total        10239                       # number of WriteReq MSHR misses
system.cpu.dcache.demand_mshr_misses::cpu.data        48975                       # number of demand (read+write) MSHR misses
system.cpu.dcache.demand_mshr_misses::total        48975                       # number of demand (read+write) MSHR misses
system.cpu.dcache.overall_mshr_misses::cpu.data        48975                       # number of overall MSHR misses
system.cpu.dcache.overall_mshr_misses::total        48975                       # number of overall MSHR misses
system.cpu.dcache.ReadReq_mshr_miss_latency::cpu.data   5570807500                       # number of ReadReq MSHR miss cycles
system.cpu.dcache.ReadReq_mshr_miss_latency::total   5570807500                       # number of ReadReq MSHR miss cycles
system.cpu.dcache.WriteReq_mshr_miss_latency::cpu.data   1358541500                       # number of WriteReq MSHR miss cycles
system.cpu.dcache.WriteReq_mshr_miss_latency::total   1358541500                       # number of WriteReq MSHR miss cycles
system.cpu.dcache.demand_mshr_miss_latency::cpu.data   6929349000                       # number of demand (read+write) MSHR miss cycles
system.cpu.dcache.demand_mshr_miss_latency::total   6929349000                       # number of demand (read+write) MSHR miss cycles
system.cpu.dcache.overall_mshr_miss_latency::cpu.data   6929349000                       # number of overall MSHR miss cycles
system.cpu.dcache.overall_mshr_miss_latency::total   6929349000                       # number of overall MSHR miss cycles
system.cpu.dcache.ReadReq_mshr_miss_rate::cpu.data     0.001855                       # mshr miss rate for ReadReq accesses
system.cpu.dcache.ReadReq_mshr_miss_rate::total     0.001855                       # mshr miss rate for ReadReq accesses
system.cpu.dcache.WriteReq_mshr_miss_rate::cpu.data     0.001760                       # mshr miss rate for WriteReq accesses
system.cpu.dcache.WriteReq_mshr_miss_rate::total     0.001760                       # mshr miss rate for WriteReq accesses
system.cpu.dcache.demand_mshr_miss_rate::cpu.data     0.001835                       # mshr miss rate for demand accesses
system.cpu.dcache.demand_mshr_miss_rate::total     0.001835                       # mshr miss rate for demand accesses
system.cpu.dcache.overall_mshr_miss_rate::cpu.data     0.001835                       # mshr miss rate for overall accesses
system.cpu.dcache.overall_mshr_miss_rate::total     0.001835                       # mshr miss rate for overall accesses
system.cpu.dcache.ReadReq_avg_mshr_miss_latency::cpu.data 143814.733065                       # average ReadReq mshr miss latency
system.cpu.dcache.ReadReq_avg_mshr_miss_latency::total 143814.733065                       # average ReadReq mshr miss latency
system.cpu.dcache.WriteReq_avg_mshr_miss_latency::cpu.data 132683.025686                       # average WriteReq mshr miss latency
system.cpu.dcache.WriteReq_avg_mshr_miss_latency::total 132683.025686                       # average WriteReq mshr miss latency
system.cpu.dcache.demand_avg_mshr_miss_latency::cpu.data 141487.473201                       # average overall mshr miss latency
system.cpu.dcache.demand_avg_mshr_miss_latency::total 141487.473201                       # average overall mshr miss latency
system.cpu.dcache.overall_avg_mshr_miss_latency::cpu.data 141487.473201                       # average overall mshr miss latency
system.cpu.dcache.overall_avg_mshr_miss_latency::total 141487.473201                       # average overall mshr miss latency
system.cpu.dcache.replacements                  44926                       # number of replacements
system.cpu.dtb_walker_cache.tags.pwrStateResidencyTicks::UNDEFINED  93603227000                       # Cumulative time (in ticks) in various power states
system.cpu.dtb_walker_cache.tags.tagsinuse            0                       # Cycle average of tags in use
system.cpu.dtb_walker_cache.tags.total_refs            0                       # Total number of references to valid blocks.
system.cpu.dtb_walker_cache.tags.sampled_refs            0                       # Sample count of references to valid blocks.
system.cpu.dtb_walker_cache.tags.avg_refs          nan                       # Average number of references to valid blocks.
system.cpu.dtb_walker_cache.tags.warmup_cycle            0                       # Cycle when the warmup percentage was hit.
system.cpu.dtb_walker_cache.tags.tag_accesses            0                       # Number of tag accesses
system.cpu.dtb_walker_cache.tags.data_accesses            0                       # Number of data accesses
system.cpu.dtb_walker_cache.pwrStateResidencyTicks::UNDEFINED  93603227000                       # Cumulative time (in ticks) in various power states
system.cpu.dtb_walker_cache.blocked_cycles::no_mshrs            0                       # number of cycles access was blocked
system.cpu.dtb_walker_cache.blocked_cycles::no_targets            0                       # number of cycles access was blocked
system.cpu.dtb_walker_cache.blocked::no_mshrs            0                       # number of cycles access was blocked
system.cpu.dtb_walker_cache.blocked::no_targets            0                       # number of cycles access was blocked
system.cpu.dtb_walker_cache.avg_blocked_cycles::no_mshrs          nan                       # average number of cycles each access was blocked
system.cpu.dtb_walker_cache.avg_blocked_cycles::no_targets          nan                       # average number of cycles each access was blocked
system.cpu.dtb_walker_cache.replacements            0                       # number of replacements
system.cpu.icache.tags.pwrStateResidencyTicks::UNDEFINED  93603227000                       # Cumulative time (in ticks) in various power states
system.cpu.icache.tags.tagsinuse           279.281091                       # Cycle average of tags in use
system.cpu.icache.tags.total_refs            59916889                       # Total number of references to valid blocks.
system.cpu.icache.tags.sampled_refs               353                       # Sample count of references to valid blocks.
system.cpu.icache.tags.avg_refs          169736.229462                       # Average number of references to valid blocks.
system.cpu.icache.tags.warmup_cycle            439000                       # Cycle when the warmup percentage was hit.
system.cpu.icache.tags.occ_blocks::cpu.inst   279.281091                       # Average occupied blocks per requestor
system.cpu.icache.tags.occ_percent::cpu.inst     0.545471                       # Average percentage of cache occupancy
system.cpu.icache.tags.occ_percent::total     0.545471                       # Average percentage of cache occupancy
system.cpu.icache.tags.occ_task_id_blocks::1024          308                       # Occupied blocks per task id
system.cpu.icache.tags.age_task_id_blocks_1024::0           28                       # Occupied blocks per task id
system.cpu.icache.tags.age_task_id_blocks_1024::1           10                       # Occupied blocks per task id
system.cpu.icache.tags.age_task_id_blocks_1024::4          270                       # Occupied blocks per task id
system.cpu.icache.tags.occ_task_id_percent::1024     0.601562                       # Percentage of cache occupancy per task id
system.cpu.icache.tags.tag_accesses         119834131                       # Number of tag accesses
system.cpu.icache.tags.data_accesses        119834131                       # Number of data accesses
system.cpu.icache.pwrStateResidencyTicks::UNDEFINED  93603227000                       # Cumulative time (in ticks) in various power states
system.cpu.icache.ReadReq_hits::cpu.inst     59916536                       # number of ReadReq hits
system.cpu.icache.ReadReq_hits::total        59916536                       # number of ReadReq hits
system.cpu.icache.demand_hits::cpu.inst      59916536                       # number of demand (read+write) hits
system.cpu.icache.demand_hits::total         59916536                       # number of demand (read+write) hits
system.cpu.icache.overall_hits::cpu.inst     59916536                       # number of overall hits
system.cpu.icache.overall_hits::total        59916536                       # number of overall hits
system.cpu.icache.ReadReq_misses::cpu.inst          353                       # number of ReadReq misses
system.cpu.icache.ReadReq_misses::total           353                       # number of ReadReq misses
system.cpu.icache.demand_misses::cpu.inst          353                       # number of demand (read+write) misses
system.cpu.icache.demand_misses::total            353                       # number of demand (read+write) misses
system.cpu.icache.overall_misses::cpu.inst          353                       # number of overall misses
system.cpu.icache.overall_misses::total           353                       # number of overall misses
system.cpu.icache.ReadReq_miss_latency::cpu.inst     63081000                       # number of ReadReq miss cycles
system.cpu.icache.ReadReq_miss_latency::total     63081000                       # number of ReadReq miss cycles
system.cpu.icache.demand_miss_latency::cpu.inst     63081000                       # number of demand (read+write) miss cycles
system.cpu.icache.demand_miss_latency::total     63081000                       # number of demand (read+write) miss cycles
system.cpu.icache.overall_miss_latency::cpu.inst     63081000                       # number of overall miss cycles
system.cpu.icache.overall_miss_latency::total     63081000                       # number of overall miss cycles
system.cpu.icache.ReadReq_accesses::cpu.inst     59916889                       # number of ReadReq accesses(hits+misses)
system.cpu.icache.ReadReq_accesses::total     59916889                       # number of ReadReq accesses(hits+misses)
system.cpu.icache.demand_accesses::cpu.inst     59916889                       # number of demand (read+write) accesses
system.cpu.icache.demand_accesses::total     59916889                       # number of demand (read+write) accesses
system.cpu.icache.overall_accesses::cpu.inst     59916889                       # number of overall (read+write) accesses
system.cpu.icache.overall_accesses::total     59916889                       # number of overall (read+write) accesses
system.cpu.icache.ReadReq_miss_rate::cpu.inst     0.000006                       # miss rate for ReadReq accesses
system.cpu.icache.ReadReq_miss_rate::total     0.000006                       # miss rate for ReadReq accesses
system.cpu.icache.demand_miss_rate::cpu.inst     0.000006                       # miss rate for demand accesses
system.cpu.icache.demand_miss_rate::total     0.000006                       # miss rate for demand accesses
system.cpu.icache.overall_miss_rate::cpu.inst     0.000006                       # miss rate for overall accesses
system.cpu.icache.overall_miss_rate::total     0.000006                       # miss rate for overall accesses
system.cpu.icache.ReadReq_avg_miss_latency::cpu.inst 178699.716714                       # average ReadReq miss latency
system.cpu.icache.ReadReq_avg_miss_latency::total 178699.716714                       # average ReadReq miss latency
system.cpu.icache.demand_avg_miss_latency::cpu.inst 178699.716714                       # average overall miss latency
system.cpu.icache.demand_avg_miss_latency::total 178699.716714                       # average overall miss latency
system.cpu.icache.overall_avg_miss_latency::cpu.inst 178699.716714                       # average overall miss latency
system.cpu.icache.overall_avg_miss_latency::total 178699.716714                       # average overall miss latency
system.cpu.icache.blocked_cycles::no_mshrs            0                       # number of cycles access was blocked
system.cpu.icache.blocked_cycles::no_targets            0                       # number of cycles access was blocked
system.cpu.icache.blocked::no_mshrs                 0                       # number of cycles access was blocked
system.cpu.icache.blocked::no_targets               0                       # number of cycles access was blocked
system.cpu.icache.avg_blocked_cycles::no_mshrs          nan                       # average number of cycles each access was blocked
system.cpu.icache.avg_blocked_cycles::no_targets          nan                       # average number of cycles each access was blocked
system.cpu.icache.writebacks::writebacks           45                       # number of writebacks
system.cpu.icache.writebacks::total                45                       # number of writebacks
system.cpu.icache.ReadReq_mshr_misses::cpu.inst          353                       # number of ReadReq MSHR misses
system.cpu.icache.ReadReq_mshr_misses::total          353                       # number of ReadReq MSHR misses
system.cpu.icache.demand_mshr_misses::cpu.inst          353                       # number of demand (read+write) MSHR misses
system.cpu.icache.demand_mshr_misses::total          353                       # number of demand (read+write) MSHR misses
system.cpu.icache.overall_mshr_misses::cpu.inst          353                       # number of overall MSHR misses
system.cpu.icache.overall_mshr_misses::total          353                       # number of overall MSHR misses
system.cpu.icache.ReadReq_mshr_miss_latency::cpu.inst     62728000                       # number of ReadReq MSHR miss cycles
system.cpu.icache.ReadReq_mshr_miss_latency::total     62728000                       # number of ReadReq MSHR miss cycles
system.cpu.icache.demand_mshr_miss_latency::cpu.inst     62728000                       # number of demand (read+write) MSHR miss cycles
system.cpu.icache.demand_mshr_miss_latency::total     62728000                       # number of demand (read+write) MSHR miss cycles
system.cpu.icache.overall_mshr_miss_latency::cpu.inst     62728000                       # number of overall MSHR miss cycles
system.cpu.icache.overall_mshr_miss_latency::total     62728000                       # number of overall MSHR miss cycles
system.cpu.icache.ReadReq_mshr_miss_rate::cpu.inst     0.000006                       # mshr miss rate for ReadReq accesses
system.cpu.icache.ReadReq_mshr_miss_rate::total     0.000006                       # mshr miss rate for ReadReq accesses
system.cpu.icache.demand_mshr_miss_rate::cpu.inst     0.000006                       # mshr miss rate for demand accesses
system.cpu.icache.demand_mshr_miss_rate::total     0.000006                       # mshr miss rate for demand accesses
system.cpu.icache.overall_mshr_miss_rate::cpu.inst     0.000006                       # mshr miss rate for overall accesses
system.cpu.icache.overall_mshr_miss_rate::total     0.000006                       # mshr miss rate for overall accesses
system.cpu.icache.ReadReq_avg_mshr_miss_latency::cpu.inst 177699.716714                       # average ReadReq mshr miss latency
system.cpu.icache.ReadReq_avg_mshr_miss_latency::total 177699.716714                       # average ReadReq mshr miss latency
system.cpu.icache.demand_avg_mshr_miss_latency::cpu.inst 177699.716714                       # average overall mshr miss latency
system.cpu.icache.demand_avg_mshr_miss_latency::total 177699.716714                       # average overall mshr miss latency
system.cpu.icache.overall_avg_mshr_miss_latency::cpu.inst 177699.716714                       # average overall mshr miss latency
system.cpu.icache.overall_avg_mshr_miss_latency::total 177699.716714                       # average overall mshr miss latency
system.cpu.icache.replacements                     45                       # number of replacements
system.cpu.itb_walker_cache.tags.pwrStateResidencyTicks::UNDEFINED  93603227000                       # Cumulative time (in ticks) in various power states
system.cpu.itb_walker_cache.tags.tagsinuse            0                       # Cycle average of tags in use
system.cpu.itb_walker_cache.tags.total_refs            0                       # Total number of references to valid blocks.
system.cpu.itb_walker_cache.tags.sampled_refs            0                       # Sample count of references to valid blocks.
system.cpu.itb_walker_cache.tags.avg_refs          nan                       # Average number of references to valid blocks.
system.cpu.itb_walker_cache.tags.warmup_cycle            0                       # Cycle when the warmup percentage was hit.
system.cpu.itb_walker_cache.tags.tag_accesses            0                       # Number of tag accesses
system.cpu.itb_walker_cache.tags.data_accesses            0                       # Number of data accesses
system.cpu.itb_walker_cache.pwrStateResidencyTicks::UNDEFINED  93603227000                       # Cumulative time (in ticks) in various power states
system.cpu.itb_walker_cache.blocked_cycles::no_mshrs            0                       # number of cycles access was blocked
system.cpu.itb_walker_cache.blocked_cycles::no_targets            0                       # number of cycles access was blocked
system.cpu.itb_walker_cache.blocked::no_mshrs            0                       # number of cycles access was blocked
system.cpu.itb_walker_cache.blocked::no_targets            0                       # number of cycles access was blocked
system.cpu.itb_walker_cache.avg_blocked_cycles::no_mshrs          nan                       # average number of cycles each access was blocked
system.cpu.itb_walker_cache.avg_blocked_cycles::no_targets          nan                       # average number of cycles each access was blocked
system.cpu.itb_walker_cache.replacements            0                       # number of replacements
system.l2.tags.pwrStateResidencyTicks::UNDEFINED  93603227000                       # Cumulative time (in ticks) in various power states
system.l2.tags.tagsinuse                  2019.796448                       # Cycle average of tags in use
system.l2.tags.total_refs                       94299                       # Total number of references to valid blocks.
system.l2.tags.sampled_refs                     24187                       # Sample count of references to valid blocks.
system.l2.tags.avg_refs                      3.898747                       # Average number of references to valid blocks.
system.l2.tags.warmup_cycle                    428500                       # Cycle when the warmup percentage was hit.
system.l2.tags.occ_blocks::writebacks        1.410885                       # Average occupied blocks per requestor
system.l2.tags.occ_blocks::cpu.inst         10.798771                       # Average occupied blocks per requestor
system.l2.tags.occ_blocks::cpu.data       2007.586791                       # Average occupied blocks per requestor
system.l2.tags.occ_percent::writebacks       0.000689                       # Average percentage of cache occupancy
system.l2.tags.occ_percent::cpu.inst         0.005273                       # Average percentage of cache occupancy
system.l2.tags.occ_percent::cpu.data         0.980267                       # Average percentage of cache occupancy
system.l2.tags.occ_percent::total            0.986229                       # Average percentage of cache occupancy
system.l2.tags.occ_task_id_blocks::1024          2048                       # Occupied blocks per task id
system.l2.tags.age_task_id_blocks_1024::0           52                       # Occupied blocks per task id
system.l2.tags.age_task_id_blocks_1024::1           21                       # Occupied blocks per task id
system.l2.tags.age_task_id_blocks_1024::2           33                       # Occupied blocks per task id
system.l2.tags.age_task_id_blocks_1024::3           58                       # Occupied blocks per task id
system.l2.tags.age_task_id_blocks_1024::4         1884                       # Occupied blocks per task id
system.l2.tags.occ_task_id_percent::1024            1                       # Percentage of cache occupancy per task id
system.l2.tags.tag_accesses                    778579                       # Number of tag accesses
system.l2.tags.data_accesses                   778579                       # Number of data accesses
system.l2.pwrStateResidencyTicks::UNDEFINED  93603227000                       # Cumulative time (in ticks) in various power states
system.l2.WritebackDirty_hits::writebacks        43434                       # number of WritebackDirty hits
system.l2.WritebackDirty_hits::total            43434                       # number of WritebackDirty hits
system.l2.WritebackClean_hits::writebacks           45                       # number of WritebackClean hits
system.l2.WritebackClean_hits::total               45                       # number of WritebackClean hits
system.l2.UpgradeReq_hits::cpu.data              3537                       # number of UpgradeReq hits
system.l2.UpgradeReq_hits::total                 3537                       # number of UpgradeReq hits
system.l2.ReadExReq_hits::cpu.data                262                       # number of ReadExReq hits
system.l2.ReadExReq_hits::total                   262                       # number of ReadExReq hits
system.l2.ReadSharedReq_hits::cpu.data          21365                       # number of ReadSharedReq hits
system.l2.ReadSharedReq_hits::total             21365                       # number of ReadSharedReq hits
system.l2.demand_hits::cpu.data                 21627                       # number of demand (read+write) hits
system.l2.demand_hits::total                    21627                       # number of demand (read+write) hits
system.l2.overall_hits::cpu.data                21627                       # number of overall hits
system.l2.overall_hits::total                   21627                       # number of overall hits
system.l2.ReadExReq_misses::cpu.data             6440                       # number of ReadExReq misses
system.l2.ReadExReq_misses::total                6440                       # number of ReadExReq misses
system.l2.ReadCleanReq_misses::cpu.inst           353                       # number of ReadCleanReq misses
system.l2.ReadCleanReq_misses::total              353                       # number of ReadCleanReq misses
system.l2.ReadSharedReq_misses::cpu.data        17371                       # number of ReadSharedReq misses
system.l2.ReadSharedReq_misses::total           17371                       # number of ReadSharedReq misses
system.l2.demand_misses::cpu.inst                 353                       # number of demand (read+write) misses
system.l2.demand_misses::cpu.data               23811                       # number of demand (read+write) misses
system.l2.demand_misses::total                  24164                       # number of demand (read+write) misses
system.l2.overall_misses::cpu.inst                353                       # number of overall misses
system.l2.overall_misses::cpu.data              23811                       # number of overall misses
system.l2.overall_misses::total                 24164                       # number of overall misses
system.l2.ReadExReq_miss_latency::cpu.data   1303293500                       # number of ReadExReq miss cycles
system.l2.ReadExReq_miss_latency::total    1303293500                       # number of ReadExReq miss cycles
system.l2.ReadCleanReq_miss_latency::cpu.inst     62197000                       # number of ReadCleanReq miss cycles
system.l2.ReadCleanReq_miss_latency::total     62197000                       # number of ReadCleanReq miss cycles
system.l2.ReadSharedReq_miss_latency::cpu.data   5288370500                       # number of ReadSharedReq miss cycles
system.l2.ReadSharedReq_miss_latency::total   5288370500                       # number of ReadSharedReq miss cycles
system.l2.demand_miss_latency::cpu.inst      62197000                       # number of demand (read+write) miss cycles
system.l2.demand_miss_latency::cpu.data    6591664000                       # number of demand (read+write) miss cycles
system.l2.demand_miss_latency::total       6653861000                       # number of demand (read+write) miss cycles
system.l2.overall_miss_latency::cpu.inst     62197000                       # number of overall miss cycles
system.l2.overall_miss_latency::cpu.data   6591664000                       # number of overall miss cycles
system.l2.overall_miss_latency::total      6653861000                       # number of overall miss cycles
system.l2.WritebackDirty_accesses::writebacks        43434                       # number of WritebackDirty accesses(hits+misses)
system.l2.WritebackDirty_accesses::total        43434                       # number of WritebackDirty accesses(hits+misses)
system.l2.WritebackClean_accesses::writebacks           45                       # number of WritebackClean accesses(hits+misses)
system.l2.WritebackClean_accesses::total           45                       # number of WritebackClean accesses(hits+misses)
system.l2.UpgradeReq_accesses::cpu.data          3537                       # number of UpgradeReq accesses(hits+misses)
system.l2.UpgradeReq_accesses::total             3537                       # number of UpgradeReq accesses(hits+misses)
system.l2.ReadExReq_accesses::cpu.data           6702                       # number of ReadExReq accesses(hits+misses)
system.l2.ReadExReq_accesses::total              6702                       # number of ReadExReq accesses(hits+misses)
system.l2.ReadCleanReq_accesses::cpu.inst          353                       # number of ReadCleanReq accesses(hits+misses)
system.l2.ReadCleanReq_accesses::total            353                       # number of ReadCleanReq accesses(hits+misses)
system.l2.ReadSharedReq_accesses::cpu.data        38736                       # number of ReadSharedReq accesses(hits+misses)
system.l2.ReadSharedReq_accesses::total         38736                       # number of ReadSharedReq accesses(hits+misses)
system.l2.demand_accesses::cpu.inst               353                       # number of demand (read+write) accesses
system.l2.demand_accesses::cpu.data             45438                       # number of demand (read+write) accesses
system.l2.demand_accesses::total                45791                       # number of demand (read+write) accesses
system.l2.overall_accesses::cpu.inst              353                       # number of overall (read+write) accesses
system.l2.overall_accesses::cpu.data            45438                       # number of overall (read+write) accesses
system.l2.overall_accesses::total               45791                       # number of overall (read+write) accesses
system.l2.ReadExReq_miss_rate::cpu.data      0.960907                       # miss rate for ReadExReq accesses
system.l2.ReadExReq_miss_rate::total         0.960907                       # miss rate for ReadExReq accesses
system.l2.ReadCleanReq_miss_rate::cpu.inst            1                       # miss rate for ReadCleanReq accesses
system.l2.ReadCleanReq_miss_rate::total             1                       # miss rate for ReadCleanReq accesses
system.l2.ReadSharedReq_miss_rate::cpu.data     0.448446                       # miss rate for ReadSharedReq accesses
system.l2.ReadSharedReq_miss_rate::total     0.448446                       # miss rate for ReadSharedReq accesses
system.l2.demand_miss_rate::cpu.inst                1                       # miss rate for demand accesses
system.l2.demand_miss_rate::cpu.data         0.524033                       # miss rate for demand accesses
system.l2.demand_miss_rate::total            0.527702                       # miss rate for demand accesses
system.l2.overall_miss_rate::cpu.inst               1                       # miss rate for overall accesses
system.l2.overall_miss_rate::cpu.data        0.524033                       # miss rate for overall accesses
system.l2.overall_miss_rate::total           0.527702                       # miss rate for overall accesses
system.l2.ReadExReq_avg_miss_latency::cpu.data 202374.767081                       # average ReadExReq miss latency
system.l2.ReadExReq_avg_miss_latency::total 202374.767081                       # average ReadExReq miss latency
system.l2.ReadCleanReq_avg_miss_latency::cpu.inst 176195.467422                       # average ReadCleanReq miss latency
system.l2.ReadCleanReq_avg_miss_latency::total 176195.467422                       # average ReadCleanReq miss latency
system.l2.ReadSharedReq_avg_miss_latency::cpu.data 304436.733637                       # average ReadSharedReq miss latency
system.l2.ReadSharedReq_avg_miss_latency::total 304436.733637                       # average ReadSharedReq miss latency
system.l2.demand_avg_miss_latency::cpu.inst 176195.467422                       # average overall miss latency
system.l2.demand_avg_miss_latency::cpu.data 276832.724371                       # average overall miss latency
system.l2.demand_avg_miss_latency::total 275362.564145                       # average overall miss latency
system.l2.overall_avg_miss_latency::cpu.inst 176195.467422                       # average overall miss latency
system.l2.overall_avg_miss_latency::cpu.data 276832.724371                       # average overall miss latency
system.l2.overall_avg_miss_latency::total 275362.564145                       # average overall miss latency
system.l2.blocked_cycles::no_mshrs                  0                       # number of cycles access was blocked
system.l2.blocked_cycles::no_targets                0                       # number of cycles access was blocked
system.l2.blocked::no_mshrs                         0                       # number of cycles access was blocked
system.l2.blocked::no_targets                       0                       # number of cycles access was blocked
system.l2.avg_blocked_cycles::no_mshrs            nan                       # average number of cycles each access was blocked
system.l2.avg_blocked_cycles::no_targets          nan                       # average number of cycles each access was blocked
system.l2.writebacks::writebacks                21483                       # number of writebacks
system.l2.writebacks::total                     21483                       # number of writebacks
system.l2.ReadExReq_mshr_misses::cpu.data         6440                       # number of ReadExReq MSHR misses
system.l2.ReadExReq_mshr_misses::total           6440                       # number of ReadExReq MSHR misses
system.l2.ReadCleanReq_mshr_misses::cpu.inst          353                       # number of ReadCleanReq MSHR misses
system.l2.ReadCleanReq_mshr_misses::total          353                       # number of ReadCleanReq MSHR misses
system.l2.ReadSharedReq_mshr_misses::cpu.data        17371                       # number of ReadSharedReq MSHR misses
system.l2.ReadSharedReq_mshr_misses::total        17371                       # number of ReadSharedReq MSHR misses
system.l2.demand_mshr_misses::cpu.inst            353                       # number of demand (read+write) MSHR misses
system.l2.demand_mshr_misses::cpu.data          23811                       # number of demand (read+write) MSHR misses
system.l2.demand_mshr_misses::total             24164                       # number of demand (read+write) MSHR misses
system.l2.overall_mshr_misses::cpu.inst           353                       # number of overall MSHR misses
system.l2.overall_mshr_misses::cpu.data         23811                       # number of overall MSHR misses
system.l2.overall_mshr_misses::total            24164                       # number of overall MSHR misses
system.l2.ReadExReq_mshr_miss_latency::cpu.data   1238893500                       # number of ReadExReq MSHR miss cycles
system.l2.ReadExReq_mshr_miss_latency::total   1238893500                       # number of ReadExReq MSHR miss cycles
system.l2.ReadCleanReq_mshr_miss_latency::cpu.inst     58667000                       # number of ReadCleanReq MSHR miss cycles
system.l2.ReadCleanReq_mshr_miss_latency::total     58667000                       # number of ReadCleanReq MSHR miss cycles
system.l2.ReadSharedReq_mshr_miss_latency::cpu.data   5114660500                       # number of ReadSharedReq MSHR miss cycles
system.l2.ReadSharedReq_mshr_miss_latency::total   5114660500                       # number of ReadSharedReq MSHR miss cycles
system.l2.demand_mshr_miss_latency::cpu.inst     58667000                       # number of demand (read+write) MSHR miss cycles
system.l2.demand_mshr_miss_latency::cpu.data   6353554000                       # number of demand (read+write) MSHR miss cycles
system.l2.demand_mshr_miss_latency::total   6412221000                       # number of demand (read+write) MSHR miss cycles
system.l2.overall_mshr_miss_latency::cpu.inst     58667000                       # number of overall MSHR miss cycles
system.l2.overall_mshr_miss_latency::cpu.data   6353554000                       # number of overall MSHR miss cycles
system.l2.overall_mshr_miss_latency::total   6412221000                       # number of overall MSHR miss cycles
system.l2.ReadExReq_mshr_miss_rate::cpu.data     0.960907                       # mshr miss rate for ReadExReq accesses
system.l2.ReadExReq_mshr_miss_rate::total     0.960907                       # mshr miss rate for ReadExReq accesses
system.l2.ReadCleanReq_mshr_miss_rate::cpu.inst            1                       # mshr miss rate for ReadCleanReq accesses
system.l2.ReadCleanReq_mshr_miss_rate::total            1                       # mshr miss rate for ReadCleanReq accesses
system.l2.ReadSharedReq_mshr_miss_rate::cpu.data     0.448446                       # mshr miss rate for ReadSharedReq accesses
system.l2.ReadSharedReq_mshr_miss_rate::total     0.448446                       # mshr miss rate for ReadSharedReq accesses
system.l2.demand_mshr_miss_rate::cpu.inst            1                       # mshr miss rate for demand accesses
system.l2.demand_mshr_miss_rate::cpu.data     0.524033                       # mshr miss rate for demand accesses
system.l2.demand_mshr_miss_rate::total       0.527702                       # mshr miss rate for demand accesses
system.l2.overall_mshr_miss_rate::cpu.inst            1                       # mshr miss rate for overall accesses
system.l2.overall_mshr_miss_rate::cpu.data     0.524033                       # mshr miss rate for overall accesses
system.l2.overall_mshr_miss_rate::total      0.527702                       # mshr miss rate for overall accesses
system.l2.ReadExReq_avg_mshr_miss_latency::cpu.data 192374.767081                       # average ReadExReq mshr miss latency
system.l2.ReadExReq_avg_mshr_miss_latency::total 192374.767081                       # average ReadExReq mshr miss latency
system.l2.ReadCleanReq_avg_mshr_miss_latency::cpu.inst 166195.467422                       # average ReadCleanReq mshr miss latency
system.l2.ReadCleanReq_avg_mshr_miss_latency::total 166195.467422                       # average ReadCleanReq mshr miss latency
system.l2.ReadSharedReq_avg_mshr_miss_latency::cpu.data 294436.733637                       # average ReadSharedReq mshr miss latency
system.l2.ReadSharedReq_avg_mshr_miss_latency::total 294436.733637                       # average ReadSharedReq mshr miss latency
system.l2.demand_avg_mshr_miss_latency::cpu.inst 166195.467422                       # average overall mshr miss latency
system.l2.demand_avg_mshr_miss_latency::cpu.data 266832.724371                       # average overall mshr miss latency
system.l2.demand_avg_mshr_miss_latency::total 265362.564145                       # average overall mshr miss latency
system.l2.overall_avg_mshr_miss_latency::cpu.inst 166195.467422                       # average overall mshr miss latency
system.l2.overall_avg_mshr_miss_latency::cpu.data 266832.724371                       # average overall mshr miss latency
system.l2.overall_avg_mshr_miss_latency::total 265362.564145                       # average overall mshr miss latency
system.l2.replacements                          22139                       # number of replacements
system.l3.tags.pwrStateResidencyTicks::UNDEFINED  93603227000                       # Cumulative time (in ticks) in various power states
system.l3.tags.tagsinuse                  2014.665140                       # Cycle average of tags in use
system.l3.tags.total_refs                       45702                       # Total number of references to valid blocks.
system.l3.tags.sampled_refs                     39180                       # Sample count of references to valid blocks.
system.l3.tags.avg_refs                      1.166462                       # Average number of references to valid blocks.
system.l3.tags.warmup_cycle                    418000                       # Cycle when the warmup percentage was hit.
system.l3.tags.occ_blocks::writebacks     1229.344074                       # Average occupied blocks per requestor
system.l3.tags.occ_blocks::cpu.inst          7.882790                       # Average occupied blocks per requestor
system.l3.tags.occ_blocks::cpu.data        777.438275                       # Average occupied blocks per requestor
system.l3.tags.occ_percent::writebacks       0.600266                       # Average percentage of cache occupancy
system.l3.tags.occ_percent::cpu.inst         0.003849                       # Average percentage of cache occupancy
system.l3.tags.occ_percent::cpu.data         0.379609                       # Average percentage of cache occupancy
system.l3.tags.occ_percent::total            0.983723                       # Average percentage of cache occupancy
system.l3.tags.occ_task_id_blocks::1024          2048                       # Occupied blocks per task id
system.l3.tags.age_task_id_blocks_1024::0           53                       # Occupied blocks per task id
system.l3.tags.age_task_id_blocks_1024::1           22                       # Occupied blocks per task id
system.l3.tags.age_task_id_blocks_1024::2           12                       # Occupied blocks per task id
system.l3.tags.age_task_id_blocks_1024::3           32                       # Occupied blocks per task id
system.l3.tags.age_task_id_blocks_1024::4         1929                       # Occupied blocks per task id
system.l3.tags.occ_task_id_percent::1024            1                       # Percentage of cache occupancy per task id
system.l3.tags.tag_accesses                    131200                       # Number of tag accesses
system.l3.tags.data_accesses                   131200                       # Number of data accesses
system.l3.pwrStateResidencyTicks::UNDEFINED  93603227000                       # Cumulative time (in ticks) in various power states
system.l3.WritebackDirty_hits::writebacks        21483                       # number of WritebackDirty hits
system.l3.WritebackDirty_hits::total            21483                       # number of WritebackDirty hits
system.l3.ReadExReq_hits::cpu.data                 36                       # number of ReadExReq hits
system.l3.ReadExReq_hits::total                    36                       # number of ReadExReq hits
system.l3.ReadSharedReq_hits::cpu.data           4340                       # number of ReadSharedReq hits
system.l3.ReadSharedReq_hits::total              4340                       # number of ReadSharedReq hits
system.l3.demand_hits::cpu.data                  4376                       # number of demand (read+write) hits
system.l3.demand_hits::total                     4376                       # number of demand (read+write) hits
system.l3.overall_hits::cpu.data                 4376                       # number of overall hits
system.l3.overall_hits::total                    4376                       # number of overall hits
system.l3.ReadExReq_misses::cpu.data             6404                       # number of ReadExReq misses
system.l3.ReadExReq_misses::total                6404                       # number of ReadExReq misses
system.l3.ReadSharedReq_misses::cpu.inst          353                       # number of ReadSharedReq misses
system.l3.ReadSharedReq_misses::cpu.data        13031                       # number of ReadSharedReq misses
system.l3.ReadSharedReq_misses::total           13384                       # number of ReadSharedReq misses
system.l3.demand_misses::cpu.inst                 353                       # number of demand (read+write) misses
system.l3.demand_misses::cpu.data               19435                       # number of demand (read+write) misses
system.l3.demand_misses::total                  19788                       # number of demand (read+write) misses
system.l3.overall_misses::cpu.inst                353                       # number of overall misses
system.l3.overall_misses::cpu.data              19435                       # number of overall misses
system.l3.overall_misses::total                 19788                       # number of overall misses
system.l3.ReadExReq_miss_latency::cpu.data   1167675500                       # number of ReadExReq miss cycles
system.l3.ReadExReq_miss_latency::total    1167675500                       # number of ReadExReq miss cycles
system.l3.ReadSharedReq_miss_latency::cpu.inst     54784000                       # number of ReadSharedReq miss cycles
system.l3.ReadSharedReq_miss_latency::cpu.data   4839753500                       # number of ReadSharedReq miss cycles
system.l3.ReadSharedReq_miss_latency::total   4894537500                       # number of ReadSharedReq miss cycles
system.l3.demand_miss_latency::cpu.inst      54784000                       # number of demand (read+write) miss cycles
system.l3.demand_miss_latency::cpu.data    6007429000                       # number of demand (read+write) miss cycles
system.l3.demand_miss_latency::total       6062213000                       # number of demand (read+write) miss cycles
system.l3.overall_miss_latency::cpu.inst     54784000                       # number of overall miss cycles
system.l3.overall_miss_latency::cpu.data   6007429000                       # number of overall miss cycles
system.l3.overall_miss_latency::total      6062213000                       # number of overall miss cycles
system.l3.WritebackDirty_accesses::writebacks        21483                       # number of WritebackDirty accesses(hits+misses)
system.l3.WritebackDirty_accesses::total        21483                       # number of WritebackDirty accesses(hits+misses)
system.l3.ReadExReq_accesses::cpu.data           6440                       # number of ReadExReq accesses(hits+misses)
system.l3.ReadExReq_accesses::total              6440                       # number of ReadExReq accesses(hits+misses)
system.l3.ReadSharedReq_accesses::cpu.inst          353                       # number of ReadSharedReq accesses(hits+misses)
system.l3.ReadSharedReq_accesses::cpu.data        17371                       # number of ReadSharedReq accesses(hits+misses)
system.l3.ReadSharedReq_accesses::total         17724                       # number of ReadSharedReq accesses(hits+misses)
system.l3.demand_accesses::cpu.inst               353                       # number of demand (read+write) accesses
system.l3.demand_accesses::cpu.data             23811                       # number of demand (read+write) accesses
system.l3.demand_accesses::total                24164                       # number of demand (read+write) accesses
system.l3.overall_accesses::cpu.inst              353                       # number of overall (read+write) accesses
system.l3.overall_accesses::cpu.data            23811                       # number of overall (read+write) accesses
system.l3.overall_accesses::total               24164                       # number of overall (read+write) accesses
system.l3.ReadExReq_miss_rate::cpu.data      0.994410                       # miss rate for ReadExReq accesses
system.l3.ReadExReq_miss_rate::total         0.994410                       # miss rate for ReadExReq accesses
system.l3.ReadSharedReq_miss_rate::cpu.inst            1                       # miss rate for ReadSharedReq accesses
system.l3.ReadSharedReq_miss_rate::cpu.data     0.750158                       # miss rate for ReadSharedReq accesses
system.l3.ReadSharedReq_miss_rate::total     0.755134                       # miss rate for ReadSharedReq accesses
system.l3.demand_miss_rate::cpu.inst                1                       # miss rate for demand accesses
system.l3.demand_miss_rate::cpu.data         0.816219                       # miss rate for demand accesses
system.l3.demand_miss_rate::total            0.818904                       # miss rate for demand accesses
system.l3.overall_miss_rate::cpu.inst               1                       # miss rate for overall accesses
system.l3.overall_miss_rate::cpu.data        0.816219                       # miss rate for overall accesses
system.l3.overall_miss_rate::total           0.818904                       # miss rate for overall accesses
system.l3.ReadExReq_avg_miss_latency::cpu.data 182335.337289                       # average ReadExReq miss latency
system.l3.ReadExReq_avg_miss_latency::total 182335.337289                       # average ReadExReq miss latency
system.l3.ReadSharedReq_avg_miss_latency::cpu.inst 155195.467422                       # average ReadSharedReq miss latency
system.l3.ReadSharedReq_avg_miss_latency::cpu.data 371403.077277                       # average ReadSharedReq miss latency
system.l3.ReadSharedReq_avg_miss_latency::total 365700.650030                       # average ReadSharedReq miss latency
system.l3.demand_avg_miss_latency::cpu.inst 155195.467422                       # average overall miss latency
system.l3.demand_avg_miss_latency::cpu.data 309103.627476                       # average overall miss latency
system.l3.demand_avg_miss_latency::total 306358.045280                       # average overall miss latency
system.l3.overall_avg_miss_latency::cpu.inst 155195.467422                       # average overall miss latency
system.l3.overall_avg_miss_latency::cpu.data 309103.627476                       # average overall miss latency
system.l3.overall_avg_miss_latency::total 306358.045280                       # average overall miss latency
system.l3.blocked_cycles::no_mshrs                  0                       # number of cycles access was blocked
system.l3.blocked_cycles::no_targets                0                       # number of cycles access was blocked
system.l3.blocked::no_mshrs                         0                       # number of cycles access was blocked
system.l3.blocked::no_targets                       0                       # number of cycles access was blocked
system.l3.avg_blocked_cycles::no_mshrs            nan                       # average number of cycles each access was blocked
system.l3.avg_blocked_cycles::no_targets          nan                       # average number of cycles each access was blocked
system.l3.writebacks::writebacks                16203                       # number of writebacks
system.l3.writebacks::total                     16203                       # number of writebacks
system.l3.CleanEvict_mshr_misses::writebacks          308                       # number of CleanEvict MSHR misses
system.l3.CleanEvict_mshr_misses::total           308                       # number of CleanEvict MSHR misses
system.l3.ReadExReq_mshr_misses::cpu.data         6404                       # number of ReadExReq MSHR misses
system.l3.ReadExReq_mshr_misses::total           6404                       # number of ReadExReq MSHR misses
system.l3.ReadSharedReq_mshr_misses::cpu.inst          353                       # number of ReadSharedReq MSHR misses
system.l3.ReadSharedReq_mshr_misses::cpu.data        13031                       # number of ReadSharedReq MSHR misses
system.l3.ReadSharedReq_mshr_misses::total        13384                       # number of ReadSharedReq MSHR misses
system.l3.demand_mshr_misses::cpu.inst            353                       # number of demand (read+write) MSHR misses
system.l3.demand_mshr_misses::cpu.data          19435                       # number of demand (read+write) MSHR misses
system.l3.demand_mshr_misses::total             19788                       # number of demand (read+write) MSHR misses
system.l3.overall_mshr_misses::cpu.inst           353                       # number of overall MSHR misses
system.l3.overall_mshr_misses::cpu.data         19435                       # number of overall MSHR misses
system.l3.overall_mshr_misses::total            19788                       # number of overall MSHR misses
system.l3.ReadExReq_mshr_miss_latency::cpu.data   1103635500                       # number of ReadExReq MSHR miss cycles
system.l3.ReadExReq_mshr_miss_latency::total   1103635500                       # number of ReadExReq MSHR miss cycles
system.l3.ReadSharedReq_mshr_miss_latency::cpu.inst     51254000                       # number of ReadSharedReq MSHR miss cycles
system.l3.ReadSharedReq_mshr_miss_latency::cpu.data   4709443500                       # number of ReadSharedReq MSHR miss cycles
system.l3.ReadSharedReq_mshr_miss_latency::total   4760697500                       # number of ReadSharedReq MSHR miss cycles
system.l3.demand_mshr_miss_latency::cpu.inst     51254000                       # number of demand (read+write) MSHR miss cycles
system.l3.demand_mshr_miss_latency::cpu.data   5813079000                       # number of demand (read+write) MSHR miss cycles
system.l3.demand_mshr_miss_latency::total   5864333000                       # number of demand (read+write) MSHR miss cycles
system.l3.overall_mshr_miss_latency::cpu.inst     51254000                       # number of overall MSHR miss cycles
system.l3.overall_mshr_miss_latency::cpu.data   5813079000                       # number of overall MSHR miss cycles
system.l3.overall_mshr_miss_latency::total   5864333000                       # number of overall MSHR miss cycles
system.l3.CleanEvict_mshr_miss_rate::writebacks          inf                       # mshr miss rate for CleanEvict accesses
system.l3.CleanEvict_mshr_miss_rate::total          inf                       # mshr miss rate for CleanEvict accesses
system.l3.ReadExReq_mshr_miss_rate::cpu.data     0.994410                       # mshr miss rate for ReadExReq accesses
system.l3.ReadExReq_mshr_miss_rate::total     0.994410                       # mshr miss rate for ReadExReq accesses
system.l3.ReadSharedReq_mshr_miss_rate::cpu.inst            1                       # mshr miss rate for ReadSharedReq accesses
system.l3.ReadSharedReq_mshr_miss_rate::cpu.data     0.750158                       # mshr miss rate for ReadSharedReq accesses
system.l3.ReadSharedReq_mshr_miss_rate::total     0.755134                       # mshr miss rate for ReadSharedReq accesses
system.l3.demand_mshr_miss_rate::cpu.inst            1                       # mshr miss rate for demand accesses
system.l3.demand_mshr_miss_rate::cpu.data     0.816219                       # mshr miss rate for demand accesses
system.l3.demand_mshr_miss_rate::total       0.818904                       # mshr miss rate for demand accesses
system.l3.overall_mshr_miss_rate::cpu.inst            1                       # mshr miss rate for overall accesses
system.l3.overall_mshr_miss_rate::cpu.data     0.816219                       # mshr miss rate for overall accesses
system.l3.overall_mshr_miss_rate::total      0.818904                       # mshr miss rate for overall accesses
system.l3.ReadExReq_avg_mshr_miss_latency::cpu.data 172335.337289                       # average ReadExReq mshr miss latency
system.l3.ReadExReq_avg_mshr_miss_latency::total 172335.337289                       # average ReadExReq mshr miss latency
system.l3.ReadSharedReq_avg_mshr_miss_latency::cpu.inst 145195.467422                       # average ReadSharedReq mshr miss latency
system.l3.ReadSharedReq_avg_mshr_miss_latency::cpu.data 361403.077277                       # average ReadSharedReq mshr miss latency
system.l3.ReadSharedReq_avg_mshr_miss_latency::total 355700.650030                       # average ReadSharedReq mshr miss latency
system.l3.demand_avg_mshr_miss_latency::cpu.inst 145195.467422                       # average overall mshr miss latency
system.l3.demand_avg_mshr_miss_latency::cpu.data 299103.627476                       # average overall mshr miss latency
system.l3.demand_avg_mshr_miss_latency::total 296358.045280                       # average overall mshr miss latency
system.l3.overall_avg_mshr_miss_latency::cpu.inst 145195.467422                       # average overall mshr miss latency
system.l3.overall_avg_mshr_miss_latency::cpu.data 299103.627476                       # average overall mshr miss latency
system.l3.overall_avg_mshr_miss_latency::total 296358.045280                       # average overall mshr miss latency
system.l3.replacements                          37132                       # number of replacements
system.membus.snoop_filter.tot_requests         38140                       # Total number of requests made to the snoop filter.
system.membus.snoop_filter.hit_single_requests        18352                       # Number of requests hitting in the snoop filter with a single holder of the requested data.
system.membus.snoop_filter.hit_multi_requests            0                       # Number of requests hitting in the snoop filter with multiple (>1) holders of the requested data.
system.membus.snoop_filter.tot_snoops               0                       # Total number of snoops made to the snoop filter.
system.membus.snoop_filter.hit_single_snoops            0                       # Number of snoops hitting in the snoop filter with a single holder of the requested data.
system.membus.snoop_filter.hit_multi_snoops            0                       # Number of snoops hitting in the snoop filter with multiple (>1) holders of the requested data.
system.membus.pwrStateResidencyTicks::UNDEFINED  93603227000                       # Cumulative time (in ticks) in various power states
system.membus.trans_dist::ReadResp              13384                       # Transaction distribution
system.membus.trans_dist::WritebackDirty        16203                       # Transaction distribution
system.membus.trans_dist::CleanEvict              315                       # Transaction distribution
system.membus.trans_dist::ReadExReq              6404                       # Transaction distribution
system.membus.trans_dist::ReadExResp             6404                       # Transaction distribution
system.membus.trans_dist::ReadSharedReq         13384                       # Transaction distribution
system.membus.pkt_count_system.l3.mem_side::system.mem_ctrls.port        56094                       # Packet count per connected master and slave (bytes)
system.membus.pkt_count_system.l3.mem_side::total        56094                       # Packet count per connected master and slave (bytes)
system.membus.pkt_count::total                  56094                       # Packet count per connected master and slave (bytes)
system.membus.pkt_size_system.l3.mem_side::system.mem_ctrls.port      2303424                       # Cumulative packet size per connected master and slave (bytes)
system.membus.pkt_size_system.l3.mem_side::total      2303424                       # Cumulative packet size per connected master and slave (bytes)
system.membus.pkt_size::total                 2303424                       # Cumulative packet size per connected master and slave (bytes)
system.membus.snoops                                0                       # Total snoops (count)
system.membus.snoopTraffic                          0                       # Total snoop traffic (bytes)
system.membus.snoop_fanout::samples             19788                       # Request fanout histogram
system.membus.snoop_fanout::mean                    0                       # Request fanout histogram
system.membus.snoop_fanout::stdev                   0                       # Request fanout histogram
system.membus.snoop_fanout::underflows              0      0.00%      0.00% # Request fanout histogram
system.membus.snoop_fanout::0                   19788    100.00%    100.00% # Request fanout histogram
system.membus.snoop_fanout::1                       0      0.00%    100.00% # Request fanout histogram
system.membus.snoop_fanout::overflows               0      0.00%    100.00% # Request fanout histogram
system.membus.snoop_fanout::min_value               0                       # Request fanout histogram
system.membus.snoop_fanout::max_value               0                       # Request fanout histogram
system.membus.snoop_fanout::total               19788                       # Request fanout histogram
system.membus.reqLayer2.occupancy           103082000                       # Layer occupancy (ticks)
system.membus.reqLayer2.utilization               0.1                       # Layer utilization (%)
system.membus.respLayer1.occupancy           98944000                       # Layer occupancy (ticks)
system.membus.respLayer1.utilization              0.1                       # Layer utilization (%)
system.tol2bus.snoop_filter.tot_requests        94299                       # Total number of requests made to the snoop filter.
system.tol2bus.snoop_filter.hit_single_requests        48508                       # Number of requests hitting in the snoop filter with a single holder of the requested data.
system.tol2bus.snoop_filter.hit_multi_requests            0                       # Number of requests hitting in the snoop filter with multiple (>1) holders of the requested data.
system.tol2bus.snoop_filter.tot_snoops           4177                       # Total number of snoops made to the snoop filter.
system.tol2bus.snoop_filter.hit_single_snoops         4177                       # Number of snoops hitting in the snoop filter with a single holder of the requested data.
system.tol2bus.snoop_filter.hit_multi_snoops            0                       # Number of snoops hitting in the snoop filter with multiple (>1) holders of the requested data.
system.tol2bus.pwrStateResidencyTicks::UNDEFINED  93603227000                       # Cumulative time (in ticks) in various power states
system.tol2bus.trans_dist::ReadResp             39089                       # Transaction distribution
system.tol2bus.trans_dist::WritebackDirty        81120                       # Transaction distribution
system.tol2bus.trans_dist::WritebackClean           45                       # Transaction distribution
system.tol2bus.trans_dist::CleanEvict           23077                       # Transaction distribution
system.tol2bus.trans_dist::UpgradeReq            3537                       # Transaction distribution
system.tol2bus.trans_dist::UpgradeResp           3537                       # Transaction distribution
system.tol2bus.trans_dist::ReadExReq             6702                       # Transaction distribution
system.tol2bus.trans_dist::ReadExResp            6702                       # Transaction distribution
system.tol2bus.trans_dist::ReadCleanReq           353                       # Transaction distribution
system.tol2bus.trans_dist::ReadSharedReq        38736                       # Transaction distribution
system.tol2bus.pkt_count_system.cpu.icache.mem_side::system.l2.cpu_side          751                       # Packet count per connected master and slave (bytes)
system.tol2bus.pkt_count_system.cpu.dcache.mem_side::system.l2.cpu_side       142876                       # Packet count per connected master and slave (bytes)
system.tol2bus.pkt_count::total                143627                       # Packet count per connected master and slave (bytes)
system.tol2bus.pkt_size_system.cpu.icache.mem_side::system.l2.cpu_side        25472                       # Cumulative packet size per connected master and slave (bytes)
system.tol2bus.pkt_size_system.cpu.dcache.mem_side::system.l2.cpu_side      5687808                       # Cumulative packet size per connected master and slave (bytes)
system.tol2bus.pkt_size::total                5713280                       # Cumulative packet size per connected master and slave (bytes)
system.tol2bus.snoops                           59271                       # Total snoops (count)
system.tol2bus.snoopTraffic                   2411904                       # Total snoop traffic (bytes)
system.tol2bus.snoop_fanout::samples           108599                       # Request fanout histogram
system.tol2bus.snoop_fanout::mean            0.038463                       # Request fanout histogram
system.tol2bus.snoop_fanout::stdev           0.192311                       # Request fanout histogram
system.tol2bus.snoop_fanout::underflows             0      0.00%      0.00% # Request fanout histogram
system.tol2bus.snoop_fanout::0                 104422     96.15%     96.15% # Request fanout histogram
system.tol2bus.snoop_fanout::1                   4177      3.85%    100.00% # Request fanout histogram
system.tol2bus.snoop_fanout::2                      0      0.00%    100.00% # Request fanout histogram
system.tol2bus.snoop_fanout::3                      0      0.00%    100.00% # Request fanout histogram
system.tol2bus.snoop_fanout::4                      0      0.00%    100.00% # Request fanout histogram
system.tol2bus.snoop_fanout::overflows              0      0.00%    100.00% # Request fanout histogram
system.tol2bus.snoop_fanout::min_value              0                       # Request fanout histogram
system.tol2bus.snoop_fanout::max_value              1                       # Request fanout histogram
system.tol2bus.snoop_fanout::total             108599                       # Request fanout histogram
system.tol2bus.reqLayer0.occupancy           90628500                       # Layer occupancy (ticks)
system.tol2bus.reqLayer0.utilization              0.1                       # Layer utilization (%)
system.tol2bus.respLayer0.occupancy            529500                       # Layer occupancy (ticks)
system.tol2bus.respLayer0.utilization             0.0                       # Layer utilization (%)
system.tol2bus.respLayer1.occupancy          69925500                       # Layer occupancy (ticks)
system.tol2bus.respLayer1.utilization             0.1                       # Layer utilization (%)
system.tol3bus.pwrStateResidencyTicks::UNDEFINED  93603227000                       # Cumulative time (in ticks) in various power states
system.tol3bus.trans_dist::ReadResp             17724                       # Transaction distribution
system.tol3bus.trans_dist::WritebackDirty        37686                       # Transaction distribution
system.tol3bus.trans_dist::CleanEvict           21292                       # Transaction distribution
system.tol3bus.trans_dist::ReadExReq             6440                       # Transaction distribution
system.tol3bus.trans_dist::ReadExResp            6440                       # Transaction distribution
system.tol3bus.trans_dist::ReadSharedReq        17724                       # Transaction distribution
system.tol3bus.pkt_count_system.l2.mem_side::system.l3.cpu_side        70174                       # Packet count per connected master and slave (bytes)
system.tol3bus.pkt_size_system.l2.mem_side::system.l3.cpu_side      2921408                       # Cumulative packet size per connected master and slave (bytes)
system.tol3bus.snoops                           37132                       # Total snoops (count)
system.tol3bus.snoopTraffic                   1036992                       # Total snoop traffic (bytes)
system.tol3bus.snoop_fanout::samples            83160                       # Request fanout histogram
system.tol3bus.snoop_fanout::mean            0.446513                       # Request fanout histogram
system.tol3bus.snoop_fanout::stdev           0.497134                       # Request fanout histogram
system.tol3bus.snoop_fanout::underflows             0      0.00%      0.00% # Request fanout histogram
system.tol3bus.snoop_fanout::0                  46028     55.35%     55.35% # Request fanout histogram
system.tol3bus.snoop_fanout::1                  37132     44.65%    100.00% # Request fanout histogram
system.tol3bus.snoop_fanout::overflows              0      0.00%    100.00% # Request fanout histogram
system.tol3bus.snoop_fanout::min_value              0                       # Request fanout histogram
system.tol3bus.snoop_fanout::max_value              1                       # Request fanout histogram
system.tol3bus.snoop_fanout::total              83160                       # Request fanout histogram
system.tol3bus.reqLayer0.occupancy           44505982                       # Layer occupancy (ticks)
system.tol3bus.reqLayer0.utilization              0.0                       # Layer utilization (%)
system.tol3bus.respLayer0.occupancy          36246018                       # Layer occupancy (ticks)
system.tol3bus.respLayer0.utilization             0.0                       # Layer utilization (%)

---------- End Simulation Statistics   ----------
